*HEADING
Fanless topology concept; mm N MPa; ideal fixed interfaces
*NODE
1, 0.0, 0.0, 0
2, 2.0, 0.0, 0
3, 4.0, 0.0, 0
4, 6.0, 0.0, 0
5, 8.0, 0.0, 0
6, 10.0, 0.0, 0
32, 0.0, 2.0, 0
33, 2.0, 2.0, 0
34, 4.0, 2.0, 0
35, 6.0, 2.0, 0
36, 8.0, 2.0, 0
37, 10.0, 2.0, 0
63, 0.0, 4.0, 0
64, 2.0, 4.0, 0
65, 4.0, 4.0, 0
66, 6.0, 4.0, 0
67, 8.0, 4.0, 0
68, 10.0, 4.0, 0
94, 0.0, 6.0, 0
95, 2.0, 6.0, 0
** ... 555 like lines cut
*ELEMENT,TYPE=CPS4,ELSET=ALL
1,1,2,33,32
2,2,3,34,33
3,3,4,35,34
4,4,5,36,35
5,5,6,37,36
31,32,33,64,63
32,33,34,65,64
33,34,35,66,65
34,35,36,67,66
35,36,37,68,67
61,63,64,95,94
62,64,65,96,95
63,65,66,97,96
64,66,67,98,97
65,67,68,99,98
91,94,95,126,125
92,95,96,127,126
93,96,97,128,127
94,97,98,129,128
95,98,99,130,129
** ... 439 like lines cut
*ELSET,ELSET=DESIGN
186,187,213,214,215,216,217,218,243,244,245,246,247,248,274,275
276,277,278,279,280,305,306,307,308,309,310,336,337,338,339,340
341,366,367,368,369,370,371,397,398,399,400,401,402,403,428,429
430,431,432,433,434,459,460,461,462,463,464,489,490,491,492,493
494,520,521,522,523,524,525,551,552,553,554,555,556,557,582,583
584,585,586,587,613,614,615,616,617,618,643,644,645,646,647,648
649,674,675,676,677,678,679,680,705,706,707,708,709,710,736,737
738,739,740,741,767,768,769,770,771,772,797,798,799,800,801,802
803,827,828,829,830,831,832,833,858,859,860,861,862,863,864,865
889,890,891,892,893,894,895,920,921,922,923,924,925,926,951,952
953,954,955,956,982,983,984,985,986,987,1011,1012,1013,1014,1015,1016
1017,1039,1040,1041,1042,1043,1044,1045,1046,1047,1067,1068,1069,1070,1071,1072
1073,1074,1075,1076,1077,1078,1095,1096,1097,1098,1099,1100,1101,1103,1104,1105
1106,1107,1108,1123,1124,1125,1126,1127,1128,1133,1134,1135,1136,1137,1138,1150
1151,1152,1153,1154,1155,1164,1165,1166,1167,1168,1176,1177,1179,1180,1181,1182
1183,1184,1194,1195,1196,1197,1198,1206,1207,1208,1209,1210,1211,1212,1213,1214
1236,1237,1238,1239,1240,1241,1242,1243,1244,1245,1246,1247,1266,1267,1268,1269
1270,1271,1272,1273,1274,1275,1276,1277,1296,1297,1298,1299,1300,1301,1302,1303
1304,1305,1306,1307,1326,1327,1328,1329,1330,1331,1332,1333,1334,1335,1336,1337
*ELSET,ELSET=KEEP
1,2,3,4,5,31,32,33,34,35,61,62,63,64,65,91
92,93,94,95,121,122,123,124,125,151,152,153,154,155,181,182
183,184,185,1021,1022,1023,1024,1025,1051,1052,1053,1054,1055,1081,1082,1083
1084,1085,1111,1112,1113,1114,1115,1141,1142,1143,1144,1145,1171,1172,1173,1174
1175,1201,1202,1203,1204,1205,1218,1219,1220,1221,1222,1223,1224,1225,1226,1227
1228,1229,1230,1231,1232,1233,1234,1235,1248,1249,1250,1251,1252,1253,1254,1255
1256,1257,1258,1259,1260,1261,1262,1263,1264,1265,1278,1279,1280,1281,1282,1283
1284,1285,1286,1287,1288,1289,1290,1291,1292,1293,1294,1295,1308,1309,1310,1311
1312,1313,1314,1315,1316,1317,1318,1319,1320,1321,1322,1323,1324,1325,1338,1339
1340,1341,1342,1343,1344,1345,1346,1347,1348,1349,1350
*ELSET,ELSET=M420
32,33,34,62,63,64,92,93,94,122,123,124,152,153,154,184
214,215,216,244,245,246,247,276,277,307,308,309,337,338,339,367
368,369,370,399,400,430,431,432,460,461,462,463,490,491,492,493
522,523,524,553,554,584,585,586,614,615,616,644,645,646,647,676
677,678,679,707,708,709,738,739,768,769,770,798,799,800,801,802
829,830,831,832,860,861,862,891,892,893,894,922,923,924,953,954
955,983,984,985,1013,1014,1015,1016,1042,1043,1044,1045,1046,1052,1053,1054
1070,1074,1075,1076,1082,1083,1084,1104,1105,1106,1107,1112,1113,1114,1135,1136
1137,1142,1143,1144,1165,1166,1167,1172,1173,1174,1181,1182,1183,1195,1196,1197
1202,1203,1204,1205,1206,1210,1211,1212,1213,1225,1226,1227,1232,1233,1234,1235
1236,1237,1238,1239,1240,1241,1242,1243,1249,1250,1251,1252,1253,1254,1255,1256
1257,1258,1259,1262,1263,1264,1265,1266,1267,1268,1269,1270,1271,1272,1273,1274
1275,1276,1277,1278,1279,1280,1281,1282,1283,1284,1285,1286,1287,1288,1289,1292
1293,1294,1295,1296,1297,1298,1299,1300,1301,1302,1303,1304,1305,1306,1307,1308
1309,1310,1311,1312,1313,1314,1315,1316,1317,1318,1319
*MATERIAL,NAME=M420
*ELASTIC
420,0.35
*SOLID SECTION,ELSET=M420,MATERIAL=M420
10.0
*ELSET,ELSET=M450
1098
*MATERIAL,NAME=M450
*ELASTIC
450,0.35
*SOLID SECTION,ELSET=M450,MATERIAL=M450
10.0
*ELSET,ELSET=M460
340,925,1012,1134
*MATERIAL,NAME=M460
*ELASTIC
460,0.35
*SOLID SECTION,ELSET=M460,MATERIAL=M460
10.0
*ELSET,ELSET=M480
521,675
*MATERIAL,NAME=M480
*ELASTIC
480,0.35
*SOLID SECTION,ELSET=M480,MATERIAL=M480
10.0
*ELSET,ELSET=M520
433
*MATERIAL,NAME=M520
*ELASTIC
520,0.35
*SOLID SECTION,ELSET=M520,MATERIAL=M520
10.0
*ELSET,ELSET=M550
1071
*MATERIAL,NAME=M550
*ELASTIC
550,0.35
*SOLID SECTION,ELSET=M550,MATERIAL=M550
10.0
*ELSET,ELSET=M570
275,398,648,771
*MATERIAL,NAME=M570
*ELASTIC
570,0.35
*SOLID SECTION,ELSET=M570,MATERIAL=M570
10.0
*ELSET,ELSET=M600
217,1207
*MATERIAL,NAME=M600
*ELASTIC
600,0.35
*SOLID SECTION,ELSET=M600,MATERIAL=M600
10.0
*ELSET,ELSET=M650
552,706
*MATERIAL,NAME=M650
*ELASTIC
650,0.35
*SOLID SECTION,ELSET=M650,MATERIAL=M650
10.0
*ELSET,ELSET=M700
1126
*MATERIAL,NAME=M700
*ELASTIC
700,0.35
*SOLID SECTION,ELSET=M700,MATERIAL=M700
10.0
*ELSET,ELSET=M750
310,895,1164
*MATERIAL,NAME=M750
*ELASTIC
750,0.35
*SOLID SECTION,ELSET=M750,MATERIAL=M750
10.0
*ELSET,ELSET=M760
494
*MATERIAL,NAME=M760
*ELASTIC
760,0.35
*SOLID SECTION,ELSET=M760,MATERIAL=M760
10.0
*ELSET,ELSET=M850
306,429,555,583,617,737,740,1041
*MATERIAL,NAME=M850
*ELASTIC
850,0.35
*SOLID SECTION,ELSET=M850,MATERIAL=M850
10.0
*ELSET,ELSET=M860
185,1154,1175
*MATERIAL,NAME=M860
*ELASTIC
860,0.35
*SOLID SECTION,ELSET=M860,MATERIAL=M860
10.0
*ELSET,ELSET=M870
401,986,1099
*MATERIAL,NAME=M870
*ELASTIC
870,0.35
*SOLID SECTION,ELSET=M870,MATERIAL=M870
10.0
*ELSET,ELSET=M890
1209
*MATERIAL,NAME=M890
*ELASTIC
890,0.35
*SOLID SECTION,ELSET=M890,MATERIAL=M890
10.0
*ELSET,ELSET=M900
952
*MATERIAL,NAME=M900
*ELASTIC
900,0.35
*SOLID SECTION,ELSET=M900,MATERIAL=M900
10.0
*ELSET,ELSET=M920
183,278,828,859,863,890,921,1069,1077,1097,1125,1153,1180,1228,1244,1248
*MATERIAL,NAME=M920
*ELASTIC
920,0.35
*SOLID SECTION,ELSET=M920,MATERIAL=M920
10.0
*ELSET,ELSET=M940
1073
*MATERIAL,NAME=M940
*ELASTIC
940,0.35
*SOLID SECTION,ELSET=M940,MATERIAL=M940
10.0
*ELSET,ELSET=M990
1224
*MATERIAL,NAME=M990
*ELASTIC
990,0.35
*SOLID SECTION,ELSET=M990,MATERIAL=M990
10.0
*ELSET,ELSET=M1000
982
*MATERIAL,NAME=M1000
*ELASTIC
1000,0.35
*SOLID SECTION,ELSET=M1000,MATERIAL=M1000
10.0
*ELSET,ELSET=M1040
1072
*MATERIAL,NAME=M1040
*ELASTIC
1040,0.35
*SOLID SECTION,ELSET=M1040,MATERIAL=M1040
10.0
*ELSET,ELSET=M1060
1208
*MATERIAL,NAME=M1060
*ELASTIC
1060,0.35
*SOLID SECTION,ELSET=M1060,MATERIAL=M1060
10.0
*ELSET,ELSET=M1100
1194
*MATERIAL,NAME=M1100
*ELASTIC
1100,0.35
*SOLID SECTION,ELSET=M1100,MATERIAL=M1100
10.0
*ELSET,ELSET=M1220
1127
*MATERIAL,NAME=M1220
*ELASTIC
1220,0.35
*SOLID SECTION,ELSET=M1220,MATERIAL=M1220
10.0
*ELSET,ELSET=M1250
2,3,4,31,35,61,65,91,95,121,125,151,155,182,213,248
279,336,402,459,556,587,613,710,767,833,864,1017,1022,1023,1024,1040
1047,1051,1055,1068,1081,1085,1096,1108,1111,1115,1124,1138,1141,1145,1152,1168
1171,1184,1198,1201,1214,1219,1220,1221,1222,1223,1229,1231,1245,1246,1247,1260
1261,1290,1291,1320,1322,1323,1324,1325,1326,1327,1328,1329,1330,1331,1332,1333
1334,1335,1336,1337,1338,1339,1340,1341,1342,1343,1344,1345,1346,1347,1348,1349
*MATERIAL,NAME=M1250
*ELASTIC
1250,0.35
*SOLID SECTION,ELSET=M1250,MATERIAL=M1250
10.0
*ELSET,ELSET=M1280
520,674
*MATERIAL,NAME=M1280
*ELASTIC
1280,0.35
*SOLID SECTION,ELSET=M1280,MATERIAL=M1280
10.0
*ELSET,ELSET=M1290
797,1151
*MATERIAL,NAME=M1290
*ELASTIC
1290,0.35
*SOLID SECTION,ELSET=M1290,MATERIAL=M1290
10.0
*ELSET,ELSET=M1310
464
*MATERIAL,NAME=M1310
*ELASTIC
1310,0.35
*SOLID SECTION,ELSET=M1310,MATERIAL=M1310
10.0
*ELSET,ELSET=M1330
489,643
*MATERIAL,NAME=M1330
*ELASTIC
1330,0.35
*SOLID SECTION,ELSET=M1330,MATERIAL=M1330
10.0
*ELSET,ELSET=M1350
243,366,680,803
*MATERIAL,NAME=M1350
*ELASTIC
1350,0.35
*SOLID SECTION,ELSET=M1350,MATERIAL=M1350
10.0
*ELSET,ELSET=M1390
1100
*MATERIAL,NAME=M1390
*ELASTIC
1390,0.35
*SOLID SECTION,ELSET=M1390,MATERIAL=M1390
10.0
*ELSET,ELSET=M1410
274,397,649,772
*MATERIAL,NAME=M1410
*ELASTIC
1410,0.35
*SOLID SECTION,ELSET=M1410,MATERIAL=M1410
10.0
*ELSET,ELSET=M1430
403
*MATERIAL,NAME=M1430
*ELASTIC
1430,0.35
*SOLID SECTION,ELSET=M1430,MATERIAL=M1430
10.0
*ELSET,ELSET=M1450
218,371,956,1103
*MATERIAL,NAME=M1450
*ELASTIC
1450,0.35
*SOLID SECTION,ELSET=M1450,MATERIAL=M1450
10.0
*ELSET,ELSET=M1480
280,865
*MATERIAL,NAME=M1480
*ELASTIC
1480,0.35
*SOLID SECTION,ELSET=M1480,MATERIAL=M1480
10.0
*ELSET,ELSET=M1520
186,1176
*MATERIAL,NAME=M1520
*ELASTIC
1520,0.35
*SOLID SECTION,ELSET=M1520,MATERIAL=M1520
10.0
*ELSET,ELSET=M1560
1155
*MATERIAL,NAME=M1560
*ELASTIC
1560,0.35
*SOLID SECTION,ELSET=M1560,MATERIAL=M1560
10.0
*ELSET,ELSET=M1570
551,705
*MATERIAL,NAME=M1570
*ELASTIC
1570,0.35
*SOLID SECTION,ELSET=M1570,MATERIAL=M1570
10.0
*ELSET,ELSET=M1580
1,5,181,525,557,987,1021,1025,1039,1067,1078,1095,1123,1218,1230,1321
1350
*MATERIAL,NAME=M1580
*ELASTIC
1580,0.35
*SOLID SECTION,ELSET=M1580,MATERIAL=M1580
10.0
*ELSET,ELSET=M1650
1011
*MATERIAL,NAME=M1650
*ELASTIC
1650,0.35
*SOLID SECTION,ELSET=M1650,MATERIAL=M1650
10.0
*ELSET,ELSET=M1700
1128
*MATERIAL,NAME=M1700
*ELASTIC
1700,0.35
*SOLID SECTION,ELSET=M1700,MATERIAL=M1700
10.0
*ELSET,ELSET=M1720
305,428,618,741
*MATERIAL,NAME=M1720
*ELASTIC
1720,0.35
*SOLID SECTION,ELSET=M1720,MATERIAL=M1720
10.0
*ELSET,ELSET=M1740
582,736
*MATERIAL,NAME=M1740
*ELASTIC
1740,0.35
*SOLID SECTION,ELSET=M1740,MATERIAL=M1740
10.0
*ELSET,ELSET=M1750
341,926,1133
*MATERIAL,NAME=M1750
*ELASTIC
1750,0.35
*SOLID SECTION,ELSET=M1750,MATERIAL=M1750
10.0
*ELSET,ELSET=M1760
434
*MATERIAL,NAME=M1760
*ELASTIC
1760,0.35
*SOLID SECTION,ELSET=M1760,MATERIAL=M1760
10.0
*ELSET,ELSET=M1780
827,858,889,920,951,1101,1150,1179
*MATERIAL,NAME=M1780
*ELASTIC
1780,0.35
*SOLID SECTION,ELSET=M1780,MATERIAL=M1780
10.0
*ELSET,ELSET=M1800
187,1177
*MATERIAL,NAME=M1800
*ELASTIC
1800,0.35
*SOLID SECTION,ELSET=M1800,MATERIAL=M1800
10.0
*NSET,NSET=SUPPORT
1,32,63,94,125,156,187,1086,1117,1148,1179,1210,1241,1272,1303,1334
1365,1396
*NSET,NSET=LOAD
1415,1416,1417,1418,1419,1420,1421,1422,1423,1424,1425
*BOUNDARY
SUPPORT,1,2
*STEP
*STATIC
*CLOAD,OP=NEW
1415,1,2.727272727272727
1415,2,-6.6886363636363635
1416,1,2.727272727272727
1416,2,-6.6886363636363635
1417,1,2.727272727272727
1417,2,-6.6886363636363635
1418,1,2.727272727272727
1418,2,-6.6886363636363635
1419,1,2.727272727272727
1419,2,-6.6886363636363635
1420,1,2.727272727272727
1420,2,-6.6886363636363635
1421,1,2.727272727272727
1421,2,-6.6886363636363635
1422,1,2.727272727272727
1422,2,-6.6886363636363635
1423,1,2.727272727272727
1423,2,-6.6886363636363635
1424,1,2.727272727272727
1424,2,-6.6886363636363635
1425,1,2.727272727272727
1425,2,-6.6886363636363635
*NODE PRINT,NSET=LOAD
U
*EL PRINT,ELSET=ALL
S,ENER
*NODE FILE
U
*EL FILE
S
*END STEP
*STEP
*STATIC
*CLOAD,OP=NEW
1415,1,4.545454545454546
1415,2,2.727272727272727
1416,1,4.545454545454546
1416,2,2.727272727272727
1417,1,4.545454545454546
1417,2,2.727272727272727
1418,1,4.545454545454546
1418,2,2.727272727272727
1419,1,4.545454545454546
1419,2,2.727272727272727
1420,1,4.545454545454546
1420,2,2.727272727272727
1421,1,4.545454545454546
1421,2,2.727272727272727
1422,1,4.545454545454546
1422,2,2.727272727272727
1423,1,4.545454545454546
1423,2,2.727272727272727
1424,1,4.545454545454546
1424,2,2.727272727272727
1425,1,4.545454545454546
1425,2,2.727272727272727
*NODE PRINT,NSET=LOAD
U
*EL PRINT,ELSET=ALL
S,ENER
*NODE FILE
U
*EL FILE
S
*END STEP
