*HEADING
Fanless topology concept; mm N MPa; ideal fixed interfaces
*NODE
1, 0.0, 0.0, 0
2, 2.0, 0.0, 0
3, 4.0, 0.0, 0
4, 6.0, 0.0, 0
5, 8.0, 0.0, 0
6, 10.0, 0.0, 0
7, 12.0, 0.0, 0
8, 14.0, 0.0, 0
9, 16.0, 0.0, 0
10, 18.0, 0.0, 0
11, 20.0, 0.0, 0
12, 22.0, 0.0, 0
13, 24.0, 0.0, 0
14, 26.0, 0.0, 0
15, 28.0, 0.0, 0
16, 30.0, 0.0, 0
17, 32.0, 0.0, 0
18, 34.0, 0.0, 0
19, 36.0, 0.0, 0
20, 38.0, 0.0, 0
** ... 1406 like lines cut
*ELEMENT,TYPE=CPS4,ELSET=ALL
1,1,2,33,32
2,2,3,34,33
3,3,4,35,34
4,4,5,36,35
5,5,6,37,36
6,6,7,38,37
7,7,8,39,38
8,8,9,40,39
9,9,10,41,40
10,10,11,42,41
11,11,12,43,42
12,12,13,44,43
13,13,14,45,44
14,14,15,46,45
15,15,16,47,46
16,16,17,48,47
17,17,18,49,48
18,18,19,50,49
19,19,20,51,50
20,20,21,52,51
** ... 1330 like lines cut
*ELSET,ELSET=DESIGN
6,7,8,9,10,11,12,13,14,15,16,17,18,19,20,21
22,23,24,25,26,27,28,29,30,36,37,38,39,40,41,42
43,44,45,46,47,48,49,50,51,52,53,54,55,56,57,58
59,60,66,67,68,69,70,71,72,73,74,75,76,77,78,79
80,81,82,83,84,85,86,87,88,89,90,96,97,98,99,100
101,102,103,104,105,106,107,108,109,110,111,112,113,114,115,116
117,118,119,120,126,127,128,129,130,131,132,133,134,135,136,137
138,139,140,141,142,143,144,145,146,147,148,149,150,156,157,158
159,160,161,162,163,164,165,166,167,168,169,170,171,172,173,174
175,176,177,178,179,180,186,187,188,189,190,191,192,193,194,195
196,197,198,199,200,201,202,203,204,205,206,207,208,209,210,211
212,213,214,215,216,217,218,219,220,221,222,223,224,225,226,227
228,229,230,231,232,233,234,235,236,237,238,239,240,241,242,243
244,245,246,247,248,249,250,251,252,253,254,255,256,257,258,259
260,261,262,263,264,265,266,267,268,269,270,271,272,273,274,275
276,277,278,279,280,281,282,283,284,285,286,287,288,289,290,291
292,293,294,295,296,297,298,299,300,301,302,303,304,305,306,307
308,309,310,311,312,313,314,315,316,317,318,319,320,321,322,323
324,325,326,327,328,329,330,331,332,333,334,335,336,337,338,339
340,341,342,343,344,345,346,347,348,349,350,351,352,353,354,355
** ... 55 like lines cut
*ELSET,ELSET=KEEP
1,2,3,4,5,31,32,33,34,35,61,62,63,64,65,91
92,93,94,95,121,122,123,124,125,151,152,153,154,155,181,182
183,184,185,1021,1022,1023,1024,1025,1051,1052,1053,1054,1055,1081,1082,1083
1084,1085,1111,1112,1113,1114,1115,1141,1142,1143,1144,1145,1171,1172,1173,1174
1175,1201,1202,1203,1204,1205,1218,1219,1220,1221,1222,1223,1224,1225,1226,1227
1228,1229,1230,1231,1232,1233,1234,1235,1248,1249,1250,1251,1252,1253,1254,1255
1256,1257,1258,1259,1260,1261,1262,1263,1264,1265,1278,1279,1280,1281,1282,1283
1284,1285,1286,1287,1288,1289,1290,1291,1292,1293,1294,1295,1308,1309,1310,1311
1312,1313,1314,1315,1316,1317,1318,1319,1320,1321,1322,1323,1324,1325,1338,1339
1340,1341,1342,1343,1344,1345,1346,1347,1348,1349,1350
*ELSET,ELSET=M420
32,33,34,35,36,37,38,39,40,41,42,43,44,45,46,47
48,49,50,51,52,53,54,55,56,57,58,59,62,63,64,65
66,67,68,69,70,71,72,73,74,75,76,77,78,79,80,81
82,83,84,85,86,87,88,89,92,93,94,95,96,97,98,99
100,101,102,103,104,105,106,107,108,109,110,111,112,113,114,115
116,117,118,119,122,123,124,125,126,127,128,129,130,131,132,133
134,135,136,137,138,139,140,141,142,143,144,145,146,147,148,149
152,153,154,155,156,157,158,159,160,161,162,163,164,165,166,167
168,169,170,171,172,173,174,175,176,177,178,179,182,183,184,185
186,187,188,189,190,191,192,193,194,195,196,197,198,199,200,201
202,203,204,205,206,207,208,209,212,213,214,215,216,217,218,219
220,221,222,223,224,225,226,227,228,229,230,231,232,233,234,235
236,237,238,239,242,243,244,245,246,247,248,249,250,251,252,253
254,255,256,257,258,259,260,261,262,263,264,265,266,267,268,269
272,273,274,275,276,277,278,279,280,281,282,283,284,285,286,287
288,289,290,291,292,293,294,295,296,297,298,299,302,303,304,305
306,307,308,309,310,311,312,313,314,315,316,317,318,319,320,321
322,323,324,325,326,327,328,329,332,333,334,335,336,337,338,339
340,341,342,343,344,345,346,347,348,349,350,351,352,353,354,355
356,357,358,359,362,363,364,365,366,367,368,369,370,371,372,373
** ... 56 like lines cut
*MATERIAL,NAME=M420
*ELASTIC
420,0.35
*SOLID SECTION,ELSET=M420,MATERIAL=M420
10.0
*ELSET,ELSET=M1250
2,3,4,5,6,7,8,9,10,11,12,13,14,15,16,17
18,19,20,21,22,23,24,25,26,27,28,29,31,60,61,90
91,120,121,150,151,180,181,210,211,240,241,270,271,300,301,330
331,360,361,390,391,420,421,450,451,480,481,510,511,540,541,570
571,600,601,630,631,660,661,690,691,720,721,750,751,780,781,810
811,840,841,870,871,900,901,930,931,960,961,990,991,1020,1021,1050
1051,1080,1081,1110,1111,1140,1141,1170,1171,1200,1201,1230,1231,1260,1261,1290
1291,1320,1322,1323,1324,1325,1326,1327,1328,1329,1330,1331,1332,1333,1334,1335
1336,1337,1338,1339,1340,1341,1342,1343,1344,1345,1346,1347,1348,1349
*MATERIAL,NAME=M1250
*ELASTIC
1250,0.35
*SOLID SECTION,ELSET=M1250,MATERIAL=M1250
10.0
*ELSET,ELSET=M1580
1,30,1321,1350
*MATERIAL,NAME=M1580
*ELASTIC
1580,0.35
*SOLID SECTION,ELSET=M1580,MATERIAL=M1580
10.0
*NSET,NSET=SUPPORT
1,32,63,94,125,156,187,1086,1117,1148,1179,1210,1241,1272,1303,1334
1365,1396
*NSET,NSET=LOAD
1415,1416,1417,1418,1419,1420,1421,1422,1423,1424,1425
*BOUNDARY
SUPPORT,1,2
*STEP
*STATIC
*CLOAD,OP=NEW
1415,1,2.727272727272727
1415,2,-6.6886363636363635
1416,1,2.727272727272727
1416,2,-6.6886363636363635
1417,1,2.727272727272727
1417,2,-6.6886363636363635
1418,1,2.727272727272727
1418,2,-6.6886363636363635
1419,1,2.727272727272727
1419,2,-6.6886363636363635
1420,1,2.727272727272727
1420,2,-6.6886363636363635
1421,1,2.727272727272727
1421,2,-6.6886363636363635
1422,1,2.727272727272727
1422,2,-6.6886363636363635
1423,1,2.727272727272727
1423,2,-6.6886363636363635
1424,1,2.727272727272727
1424,2,-6.6886363636363635
1425,1,2.727272727272727
1425,2,-6.6886363636363635
*NODE PRINT,NSET=LOAD
U
*EL PRINT,ELSET=ALL
S,ENER
*NODE FILE
U
*EL FILE
S
*END STEP
*STEP
*STATIC
*CLOAD,OP=NEW
1415,1,4.545454545454546
1415,2,2.727272727272727
1416,1,4.545454545454546
1416,2,2.727272727272727
1417,1,4.545454545454546
1417,2,2.727272727272727
1418,1,4.545454545454546
1418,2,2.727272727272727
1419,1,4.545454545454546
1419,2,2.727272727272727
1420,1,4.545454545454546
1420,2,2.727272727272727
1421,1,4.545454545454546
1421,2,2.727272727272727
1422,1,4.545454545454546
1422,2,2.727272727272727
1423,1,4.545454545454546
1423,2,2.727272727272727
1424,1,4.545454545454546
1424,2,2.727272727272727
1425,1,4.545454545454546
1425,2,2.727272727272727
*NODE PRINT,NSET=LOAD
U
*EL PRINT,ELSET=ALL
S,ENER
*NODE FILE
U
*EL FILE
S
*END STEP
