*HEADING
Fanless topology concept; mm N MPa; ideal fixed interfaces
*NODE
1, 0.0, 0.0, 0
2, 2.0, 0.0, 0
3, 4.0, 0.0, 0
4, 6.0, 0.0, 0
5, 8.0, 0.0, 0
6, 10.0, 0.0, 0
32, 0.0, 2.0, 0
33, 2.0, 2.0, 0
34, 4.0, 2.0, 0
35, 6.0, 2.0, 0
36, 8.0, 2.0, 0
37, 10.0, 2.0, 0
63, 0.0, 4.0, 0
64, 2.0, 4.0, 0
65, 4.0, 4.0, 0
66, 6.0, 4.0, 0
67, 8.0, 4.0, 0
68, 10.0, 4.0, 0
94, 0.0, 6.0, 0
95, 2.0, 6.0, 0
** ... 727 like lines cut
*ELEMENT,TYPE=CPS4,ELSET=ALL
1,1,2,33,32
2,2,3,34,33
3,3,4,35,34
4,4,5,36,35
5,5,6,37,36
31,32,33,64,63
32,33,34,65,64
33,34,35,66,65
34,35,36,67,66
35,36,37,68,67
61,63,64,95,94
62,64,65,96,95
63,65,66,97,96
64,66,67,98,97
65,67,68,99,98
91,94,95,126,125
92,95,96,127,126
93,96,97,128,127
94,97,98,129,128
95,98,99,130,129
** ... 612 like lines cut
*ELSET,ELSET=DESIGN
126,127,156,157,158,186,187,188,211,212,213,214,215,216,217,218
219,220,241,242,243,244,245,246,247,248,249,250,273,274,275,276
277,278,279,280,281,282,304,305,306,307,308,309,310,311,312,335
336,337,338,339,340,341,342,343,344,365,366,367,368,369,370,371
372,373,374,396,397,398,399,400,401,402,403,404,405,406,427,428
429,430,431,432,433,434,435,436,458,459,460,461,462,463,464,465
466,467,489,490,491,492,493,494,495,496,497,498,520,521,522,523
524,525,526,527,528,529,551,552,553,554,555,556,557,558,559,560
582,583,584,585,586,587,588,589,590,591,613,614,615,616,617,618
619,620,621,622,644,645,646,647,648,649,650,651,652,653,675,676
677,678,679,680,681,682,683,684,706,707,708,709,710,711,712,713
714,715,737,738,739,740,741,742,743,744,745,767,768,769,770,771
772,773,774,775,776,797,798,799,800,801,802,803,804,805,806,827
828,829,830,831,832,833,834,835,836,837,855,856,857,858,859,860
861,862,863,864,865,866,867,885,886,887,888,889,890,891,892,893
894,895,896,897,898,913,914,915,916,917,920,921,922,923,924,925
926,927,928,942,943,944,945,946,951,952,953,954,955,956,957,958
970,971,972,973,974,981,982,983,984,985,986,987,988,989,999,1000
1001,1002,1003,1011,1012,1013,1014,1015,1016,1017,1018,1019,1028,1029,1030,1031
1032,1041,1042,1043,1044,1045,1046,1047,1048,1049,1050,1056,1057,1058,1059,1060
** ... 10 like lines cut
*ELSET,ELSET=KEEP
1,2,3,4,5,31,32,33,34,35,61,62,63,64,65,91
92,93,94,95,121,122,123,124,125,151,152,153,154,155,181,182
183,184,185,1021,1022,1023,1024,1025,1051,1052,1053,1054,1055,1081,1082,1083
1084,1085,1111,1112,1113,1114,1115,1141,1142,1143,1144,1145,1171,1172,1173,1174
1175,1201,1202,1203,1204,1205,1218,1219,1220,1221,1222,1223,1224,1225,1226,1227
1228,1229,1230,1231,1232,1233,1234,1235,1248,1249,1250,1251,1252,1253,1254,1255
1256,1257,1258,1259,1260,1261,1262,1263,1264,1265,1278,1279,1280,1281,1282,1283
1284,1285,1286,1287,1288,1289,1290,1291,1292,1293,1294,1295,1308,1309,1310,1311
1312,1313,1314,1315,1316,1317,1318,1319,1320,1321,1322,1323,1324,1325,1338,1339
1340,1341,1342,1343,1344,1345,1346,1347,1348,1349,1350
*ELSET,ELSET=M420
32,33,34,62,63,64,92,93,94,122,123,124,152,153,154,155
156,182,183,184,185,186,187,212,213,214,215,216,217,244,245,246
247,248,249,275,276,277,278,279,306,307,308,309,310,311,336,337
338,339,340,341,367,368,369,370,371,372,373,398,399,400,401,402
403,429,430,431,432,433,434,435,460,461,462,463,464,465,491,492
493,494,495,496,522,523,524,525,526,527,553,554,555,556,557,558
584,585,586,587,588,589,615,616,617,618,619,620,646,647,648,649
650,651,677,678,679,680,681,682,708,709,710,711,712,713,738,739
740,741,742,743,744,768,769,770,771,772,773,774,798,799,800,801
802,803,804,805,828,829,830,831,832,833,834,835,858,859,860,861
862,863,864,865,866,886,891,892,893,894,895,896,922,923,924,925
926,927,952,953,954,955,956,957,982,983,984,985,986,987,1001,1012
1013,1014,1015,1016,1017,1018,1042,1043,1044,1045,1046,1047,1048,1052,1053,1054
1059,1072,1073,1074,1075,1076,1077,1078,1079,1082,1083,1084,1085,1086,1087,1088
1089,1101,1102,1103,1104,1105,1106,1107,1108,1109,1112,1113,1114,1115,1116,1117
1118,1119,1127,1132,1133,1134,1135,1136,1137,1138,1139,1142,1143,1144,1145,1146
1147,1148,1149,1155,1156,1163,1164,1165,1166,1167,1168,1169,1172,1173,1174,1175
1176,1177,1178,1179,1180,1181,1182,1183,1184,1185,1186,1193,1194,1195,1196,1197
1198,1199,1202,1203,1204,1205,1206,1207,1208,1209,1210,1211,1212,1213,1214,1215
1216,1223,1224,1225,1226,1227,1228,1229,1232,1233,1234,1235,1236,1237,1238,1239
** ... 5 like lines cut
*MATERIAL,NAME=M420
*ELASTIC
420,0.35
*SOLID SECTION,ELSET=M420,MATERIAL=M420
10.0
*ELSET,ELSET=M920
125,157,218,243,274,280,305,342,366,397,404,428,459,466,490,497
521,528,552,559,583,590,614,621,645,652,676,683,707,714,775,836
857,887,890,897,915,916,921,943,944,972,973,988,1000,1002,1029,1030
1049,1055,1058,1071,1100,1126,1128,1131,1150,1154,1157,1162,1217,1222
*MATERIAL,NAME=M920
*ELASTIC
920,0.35
*SOLID SECTION,ELSET=M920,MATERIAL=M920
10.0
*ELSET,ELSET=M1250
2,3,4,31,35,61,65,91,95,121,126,151,181,188,211,219
242,250,281,312,335,343,374,405,436,737,745,767,797,806,827,856
867,885,888,889,914,928,945,951,958,971,981,1011,1019,1022,1023,1024
1031,1041,1051,1056,1057,1060,1080,1081,1090,1097,1098,1099,1110,1111,1120,1125
1129,1130,1140,1141,1151,1152,1153,1170,1171,1187,1192,1200,1201,1218,1219,1220
1221,1230,1231,1260,1261,1290,1291,1320,1322,1323,1324,1325,1326,1327,1328,1329
1330,1331,1332,1333,1334,1335,1336,1337,1338,1339,1340,1341,1342,1343,1344,1345
1346,1347,1348,1349
*MATERIAL,NAME=M1250
*ELASTIC
1250,0.35
*SOLID SECTION,ELSET=M1250,MATERIAL=M1250
10.0
*ELSET,ELSET=M1580
1,5,127,158,220,241,273,282,304,344,365,396,406,427,458,467
489,498,520,529,551,560,582,591,613,622,644,653,675,684,706,715
776,837,855,898,913,917,920,942,946,970,974,989,999,1003,1021,1025
1028,1032,1050,1070,1096,1124,1158,1161,1321,1350
*MATERIAL,NAME=M1580
*ELASTIC
1580,0.35
*SOLID SECTION,ELSET=M1580,MATERIAL=M1580
10.0
*NSET,NSET=SUPPORT
1,32,63,94,125,156,187,1086,1117,1148,1179,1210,1241,1272,1303,1334
1365,1396
*NSET,NSET=LOAD
1415,1416,1417,1418,1419,1420,1421,1422,1423,1424,1425
*BOUNDARY
SUPPORT,1,2
*STEP
*STATIC
*CLOAD,OP=NEW
1415,1,2.727272727272727
1415,2,-6.6886363636363635
1416,1,2.727272727272727
1416,2,-6.6886363636363635
1417,1,2.727272727272727
1417,2,-6.6886363636363635
1418,1,2.727272727272727
1418,2,-6.6886363636363635
1419,1,2.727272727272727
1419,2,-6.6886363636363635
1420,1,2.727272727272727
1420,2,-6.6886363636363635
1421,1,2.727272727272727
1421,2,-6.6886363636363635
1422,1,2.727272727272727
1422,2,-6.6886363636363635
1423,1,2.727272727272727
1423,2,-6.6886363636363635
1424,1,2.727272727272727
1424,2,-6.6886363636363635
1425,1,2.727272727272727
1425,2,-6.6886363636363635
*NODE PRINT,NSET=LOAD
U
*EL PRINT,ELSET=ALL
S,ENER
*NODE FILE
U
*EL FILE
S
*END STEP
*STEP
*STATIC
*CLOAD,OP=NEW
1415,1,4.545454545454546
1415,2,2.727272727272727
1416,1,4.545454545454546
1416,2,2.727272727272727
1417,1,4.545454545454546
1417,2,2.727272727272727
1418,1,4.545454545454546
1418,2,2.727272727272727
1419,1,4.545454545454546
1419,2,2.727272727272727
1420,1,4.545454545454546
1420,2,2.727272727272727
1421,1,4.545454545454546
1421,2,2.727272727272727
1422,1,4.545454545454546
1422,2,2.727272727272727
1423,1,4.545454545454546
1423,2,2.727272727272727
1424,1,4.545454545454546
1424,2,2.727272727272727
1425,1,4.545454545454546
1425,2,2.727272727272727
*NODE PRINT,NSET=LOAD
U
*EL PRINT,ELSET=ALL
S,ENER
*NODE FILE
U
*EL FILE
S
*END STEP
